Version 4
SHEET 1 1648 808
WIRE 96 -272 -48 -272
WIRE 208 -272 96 -272
WIRE -416 -240 -480 -240
WIRE -336 -240 -416 -240
WIRE -48 -240 -48 -272
WIRE -480 -208 -480 -240
WIRE -336 -208 -336 -240
WIRE 208 -176 208 -272
WIRE -48 -112 -48 -160
WIRE 208 16 208 -112
WIRE 208 144 208 16
WIRE 208 144 160 144
WIRE 96 160 0 160
WIRE 1520 160 1520 112
WIRE 256 176 160 176
WIRE 0 208 0 160
WIRE 560 256 560 192
WIRE 640 256 560 256
WIRE 640 272 640 256
WIRE 1520 288 1520 240
WIRE 256 320 256 176
WIRE 1440 400 1216 400
WIRE 1520 400 1520 352
WIRE 1520 400 1440 400
WIRE 256 448 256 400
WIRE 304 448 256 448
WIRE 560 448 560 256
WIRE 560 448 496 448
WIRE 1216 464 1216 400
WIRE 304 544 256 544
WIRE 560 544 496 544
WIRE 768 544 560 544
WIRE 928 544 832 544
WIRE 960 544 928 544
WIRE 1168 544 960 544
FLAG -48 -112 0
FLAG 0 208 0
FLAG 208 16 V_After_Zener
FLAG 96 -272 Vacc
FLAG 256 544 0
FLAG 640 352 0
FLAG 560 624 0
FLAG 928 624 0
FLAG 960 544 AIR_ON
FLAG 1216 560 0
FLAG 560 192 COM
FLAG 1520 112 COM
FLAG 1440 400 ACC_Light
FLAG -480 -128 0
FLAG -336 -128 0
FLAG -416 -240 60
SYMBOL zener 224 -112 R180
WINDOW 0 24 64 Left 2
WINDOW 3 24 0 Left 2
SYMATTR InstName D1
SYMATTR Value 1N5371B
SYMBOL res 240 304 R0
SYMATTR InstName R1
SYMATTR Value 200
SYMBOL voltage -48 -256 R0
WINDOW 3 24 96 Invisible 2
WINDOW 123 0 0 Left 0
WINDOW 39 0 0 Left 0
SYMATTR Value EXP(0 400 1 0.528 4 1.936)
SYMATTR InstName V1
SYMBOL AutoGenerated\\IXCP10M90S 128 160 R0
SYMATTR InstName U1
SYMBOL Optos\\PC817A 400 496 R0
SYMATTR InstName U2
SYMBOL voltage 640 256 R0
WINDOW 123 0 0 Left 0
WINDOW 39 0 0 Left 0
SYMATTR InstName V2
SYMATTR Value 12
SYMBOL res 544 528 R0
SYMATTR InstName R2
SYMATTR Value 10k
SYMBOL diode 768 560 R270
WINDOW 0 32 32 VTop 2
WINDOW 3 0 32 VBottom 2
SYMATTR InstName D2
SYMATTR Value D1n4004rl
SYMBOL res 912 528 R0
SYMATTR InstName R3
SYMATTR Value 10k
SYMBOL nmos 1168 464 R0
SYMATTR InstName M1
SYMATTR Value RTL035N03
SYMBOL LED 1504 288 R0
SYMATTR InstName D3
SYMATTR Value AOT-2015
SYMBOL res 1504 144 R0
SYMATTR InstName R4
SYMATTR Value 1k
SYMBOL voltage -480 -224 R0
WINDOW 123 0 0 Left 0
WINDOW 39 0 0 Left 0
SYMATTR InstName V3
SYMATTR Value 60
SYMBOL res -352 -224 R0
SYMATTR InstName R5
SYMATTR Value 100k
TEXT -80 792 Left 2 !.tran 10
