Version 4
SHEET 1 1376 808
WIRE 96 -272 -48 -272
WIRE 208 -272 96 -272
WIRE -336 -256 -480 -256
WIRE -256 -256 -336 -256
WIRE -48 -240 -48 -272
WIRE 208 -240 208 -272
WIRE 272 -240 208 -240
WIRE 336 -240 272 -240
WIRE 400 -240 336 -240
WIRE -480 -224 -480 -256
WIRE -256 -224 -256 -256
WIRE 208 -176 208 -240
WIRE 272 -176 272 -240
WIRE 336 -176 336 -240
WIRE 400 -176 400 -240
WIRE -48 -112 -48 -160
WIRE 208 -80 208 -112
WIRE 272 -80 272 -112
WIRE 272 -80 208 -80
WIRE 336 -80 336 -112
WIRE 336 -80 272 -80
WIRE 400 -80 400 -112
WIRE 400 -80 336 -80
WIRE 272 -64 272 -80
WIRE 208 16 208 -80
WIRE 208 144 208 16
WIRE 208 144 160 144
WIRE 96 160 0 160
WIRE 240 176 160 176
WIRE 256 176 240 176
WIRE 0 208 0 160
WIRE 256 320 256 176
WIRE 640 320 560 320
WIRE 640 336 640 320
WIRE 256 448 256 400
WIRE 320 448 256 448
WIRE 560 448 560 320
WIRE 560 448 512 448
WIRE 320 544 256 544
WIRE 592 544 512 544
WIRE 784 544 592 544
WIRE 256 624 256 544
FLAG 256 624 0
FLAG -48 -112 0
FLAG 0 208 0
FLAG 208 16 V_After_Zener
FLAG 96 -272 Vacc
FLAG 240 176 Vout
FLAG -480 -144 0
FLAG -256 -144 0
FLAG -336 -256 V60
FLAG 640 416 0
FLAG 592 624 0
SYMBOL zener 224 -112 R180
WINDOW 0 24 64 Left 2
WINDOW 3 24 0 Left 2
SYMATTR InstName D1
SYMATTR Value 1N5371B
SYMBOL res 240 304 R0
SYMATTR InstName R1
SYMATTR Value 200
SYMBOL voltage -48 -256 R0
WINDOW 3 24 96 Invisible 2
WINDOW 123 0 0 Left 0
WINDOW 39 0 0 Left 0
SYMATTR Value EXP(0 400 0 0.528 4 1.936)
SYMATTR InstName V1
SYMBOL AutoGenerated\\IXCP10M90S 128 160 R0
SYMATTR InstName U1
SYMBOL zener 288 -112 R180
WINDOW 0 24 64 Left 2
WINDOW 3 24 0 Left 2
SYMATTR InstName D3
SYMATTR Value 1N5371B
SYMBOL zener 352 -112 R180
WINDOW 0 24 64 Left 2
WINDOW 3 24 0 Left 2
SYMATTR InstName D4
SYMATTR Value 1N5371B
SYMBOL zener 416 -112 R180
WINDOW 0 24 64 Left 2
WINDOW 3 24 0 Left 2
SYMATTR InstName D5
SYMATTR Value 1N5371B
SYMBOL voltage -480 -240 R0
WINDOW 123 0 0 Left 0
WINDOW 39 0 0 Left 0
SYMATTR InstName V2
SYMATTR Value 60
SYMBOL res -272 -240 R0
SYMATTR InstName R2
SYMATTR Value 100k
SYMBOL Optos\\PC817A 416 496 R0
SYMATTR InstName U2
SYMBOL voltage 640 320 R0
WINDOW 123 0 0 Left 0
WINDOW 39 0 0 Left 0
SYMATTR InstName V3
SYMATTR Value 12
SYMBOL res 576 528 R0
SYMATTR InstName R3
SYMATTR Value 10k
SYMBOL diode 784 560 R270
WINDOW 0 32 32 VTop 2
WINDOW 3 0 32 VBottom 2
SYMATTR InstName D2
TEXT -82 568 Left 2 !.tran 10
