Version 4
SHEET 1 1376 808
WIRE 96 -272 -48 -272
WIRE 208 -272 96 -272
WIRE -48 -240 -48 -272
WIRE 208 -176 208 -272
WIRE -48 -112 -48 -160
WIRE 208 16 208 -112
WIRE 208 144 208 16
WIRE 208 144 160 144
WIRE 96 160 0 160
WIRE 256 176 160 176
WIRE 0 208 0 160
WIRE 256 320 256 176
WIRE 256 432 256 400
WIRE 256 544 256 496
FLAG 256 544 0
FLAG -48 -112 0
FLAG 0 208 0
FLAG 208 16 V_After_Zener
FLAG 96 -272 Vacc
SYMBOL zener 224 -112 R180
WINDOW 0 24 64 Left 2
WINDOW 3 24 0 Left 2
SYMATTR InstName D1
SYMATTR Value 1N5371B
SYMBOL res 240 304 R0
SYMATTR InstName R1
SYMATTR Value 200
SYMBOL diode 240 432 R0
SYMATTR InstName D2
SYMATTR Value RF05VA1S
SYMATTR Description Light Emitting Diode
SYMATTR Type led
SYMBOL voltage -48 -256 R0
WINDOW 3 24 96 Invisible 2
WINDOW 123 0 0 Left 0
WINDOW 39 0 0 Left 0
SYMATTR InstName V1
SYMATTR Value 400
SYMBOL AutoGenerated\\IXCP10M90S 128 160 R0
SYMATTR InstName U1
TEXT -82 792 Left 2 !.dc V1 0 400 1
